
     RDKit          3D

 20 20  0  0  0  0  0  0  0  0999 V2000
  -19.7230   23.6760   64.8630 C   0  0  0  0  0  0  0  0  0  0  0  0
  -19.6500   22.5010   65.1710 O   0  0  0  0  0  0  0  0  0  0  0  0
  -20.8740   24.3970   65.0420 O   0  0  0  0  0  0  0  0  0  0  0  0
  -18.6330   24.3420   64.1170 C   0  0  0  0  0  0  0  0  0  0  0  0
  -17.1900   23.7250   63.9650 C   0  0  0  0  0  0  0  0  0  0  0  0
  -16.3820   24.3540   62.8410 C   0  0  0  0  0  0  0  0  0  0  0  0
  -16.4020   25.8510   62.7170 C   0  0  0  0  0  0  0  0  0  0  0  0
  -15.6200   26.4230   61.6330 N   0  0  0  0  0  0  0  0  0  0  0  0
  -14.3220   27.0320   61.8380 C   0  0  0  0  0  0  0  0  0  0  0  0
  -13.8840   27.2110   62.9700 O   0  0  0  0  0  0  0  0  0  0  0  0
  -13.6270   27.6120   60.6220 C   0  0  0  0  0  0  0  0  0  0  0  0
  -17.6560   26.6270   63.0840 C   0  0  0  0  0  0  0  0  0  0  0  0
  -18.7980   25.9010   63.8540 C   0  0  0  0  0  0  0  0  0  0  0  0
  -17.5430   28.0330   63.2920 O   0  0  0  0  0  0  0  0  0  0  0  0
  -18.3450   28.9870   62.6040 C   0  0  0  0  0  0  0  0  0  0  0  0
  -19.7030   29.2210   63.2520 C   0  0  0  0  0  0  0  0  0  0  0  0
  -17.5960   30.2860   62.3660 C   0  0  0  0  0  0  0  0  0  0  0  0
  -16.1360   30.3180   62.7170 C   0  0  0  0  0  0  0  0  0  0  0  0
  -19.7110   29.6040   64.6970 C   0  0  0  0  0  0  0  0  0  0  0  0
  -15.1660   23.6840   62.4760 N   0  0  0  0  0  0  0  0  0  0  0  0
  2  1  2  0
  3  1  1  0
  4  1  1  0
  5  4  1  0
  6  5  1  0
  7  6  1  0
  8  7  1  0
  9  8  1  0
 10  9  2  0
 11  9  1  0
 12  7  1  0
 13 12  1  0
 13  4  2  0
 14 12  1  0
 15 14  1  0
 16 15  1  0
 17 15  1  0
 18 17  1  0
 19 16  1  0
 20  6  1  0
M  END
$$$$
