
     RDKit          3D

 27 29  0  0  0  0  0  0  0  0999 V2000
   49.9150   54.4790    8.5230 N   0  0  0  0  0  0  0  0  0  0  0  0
   49.5140   55.7200    7.8540 C   0  0  0  0  0  0  0  0  0  0  0  0
   50.3950   56.9260    8.2960 C   0  0  0  0  0  0  0  0  0  0  0  0
   50.7000   57.7760    7.5170 O   0  0  0  0  0  0  0  0  0  0  0  0
   50.8670   57.0520    9.6100 O   0  0  0  0  0  0  0  0  0  0  0  0
   48.0260   55.9510    8.1790 C   0  0  0  0  0  0  0  0  0  0  0  0
   47.1750   56.4970    7.0090 C   0  0  0  0  0  0  0  0  0  0  0  0
   45.8070   56.9020    7.6320 C   0  0  0  0  0  0  0  0  0  0  0  0
   44.7340   56.0310    7.1360 N   0  0  0  0  0  0  0  0  0  0  0  0
   45.4520   58.3840    7.3730 C   0  0  0  0  0  0  0  0  0  0  0  0
   46.2340   59.3310    8.3150 C   0  0  0  0  0  0  0  0  0  0  0  0
   46.1280   58.9990    9.7310 O   0  0  0  0  0  0  0  0  0  0  0  0
   47.7460   59.3290    8.0480 C   0  0  0  0  0  0  0  0  0  0  0  0
   48.0840   60.0140    6.8740 O   0  0  0  0  0  0  0  0  0  0  0  0
   48.3170   59.9610    9.2840 C   0  0  0  0  0  0  0  0  0  0  0  0
   48.4300   61.3520    9.1160 O   0  0  0  0  0  0  0  0  0  0  0  0
   47.3040   59.6030   10.3800 C   0  0  0  0  0  0  0  0  0  0  0  0
   47.8740   58.6100   11.2960 N   0  0  0  0  0  0  0  0  0  0  0  0
   47.5700   57.1540   11.3050 C   0  0  0  0  0  0  0  0  0  0  0  0
   48.3180   56.5510   12.3980 N   0  0  0  0  0  0  0  0  0  0  0  0
   49.0690   57.6120   13.0690 C   0  0  0  0  0  0  0  0  0  0  0  0
   50.0080   57.5860   14.2570 C   0  0  0  0  0  0  0  0  0  0  0  0
   50.2810   56.3290   14.9400 N   0  0  0  0  0  0  0  0  0  0  0  0
   50.6200   58.8200   14.7130 N   0  0  0  0  0  0  0  0  0  0  0  0
   50.3360   60.1160   14.0230 C   0  0  0  0  0  0  0  0  0  0  0  0
   49.4170   60.1380   12.8630 N   0  0  0  0  0  0  0  0  0  0  0  0
   48.7850   58.8800   12.3960 C   0  0  0  0  0  0  0  0  0  0  0  0
  2  1  1  0
  3  2  1  0
  4  3  2  0
  5  3  1  0
  6  2  1  0
  7  6  1  0
  8  7  1  0
  9  8  1  0
 10  8  1  0
 11 10  1  0
 12 11  1  0
 13 11  1  0
 14 13  1  0
 15 13  1  0
 16 15  1  0
 17 12  1  0
 17 15  1  0
 18 17  1  0
 19 18  1  0
 20 19  2  0
 21 20  1  0
 22 21  1  0
 23 22  1  0
 24 22  2  0
 25 24  1  0
 26 25  2  0
 27 18  1  0
 27 21  2  0
 27 26  1  0
M  END
$$$$
